Version 4
SHEET 1 5732 1588
WIRE 1280 -1616 1280 -1712
WIRE 1280 -1616 1264 -1616
WIRE 960 -1600 784 -1600
WIRE 1168 -1600 960 -1600
WIRE 1280 -1584 1264 -1584
WIRE 576 -1568 576 -1632
WIRE 784 -1520 784 -1600
WIRE 576 -1456 576 -1488
WIRE 1280 -1440 1280 -1584
WIRE 1360 -1440 1280 -1440
WIRE 1520 -1440 1360 -1440
WIRE 1824 -1440 1616 -1440
WIRE 1952 -1440 1824 -1440
WIRE 2144 -1440 1952 -1440
WIRE 2304 -1440 2208 -1440
WIRE 2464 -1440 2304 -1440
WIRE 2736 -1440 2688 -1440
WIRE 3008 -1440 2736 -1440
WIRE 3264 -1440 3008 -1440
WIRE 784 -1408 784 -1440
WIRE 1280 -1408 1280 -1440
WIRE 1280 -1408 784 -1408
WIRE 1952 -1408 1952 -1440
WIRE 2304 -1392 2304 -1440
WIRE 3584 -1360 3392 -1360
WIRE 3264 -1344 3264 -1440
WIRE 1280 -1328 1280 -1408
WIRE 1280 -1328 1264 -1328
WIRE 944 -1312 784 -1312
WIRE 1168 -1312 944 -1312
WIRE 1824 -1312 1824 -1440
WIRE 3008 -1312 3008 -1440
WIRE 3392 -1312 3392 -1360
WIRE 784 -1296 784 -1312
WIRE 1280 -1296 1264 -1296
WIRE 1952 -1280 1952 -1328
WIRE 2304 -1264 2304 -1312
WIRE 2464 -1248 2464 -1440
WIRE 2544 -1248 2464 -1248
WIRE 2688 -1248 2688 -1440
WIRE 2688 -1248 2624 -1248
WIRE 1280 -1200 1280 -1296
WIRE 784 -1184 784 -1216
WIRE 3264 -1184 3264 -1264
WIRE 3392 -1184 3392 -1232
WIRE 3392 -1184 3264 -1184
WIRE 3424 -1184 3392 -1184
WIRE 3584 -1168 3584 -1360
WIRE 3584 -1168 3488 -1168
WIRE 3680 -1168 3584 -1168
WIRE 3264 -1152 3232 -1152
WIRE 3408 -1152 3344 -1152
WIRE 3424 -1152 3408 -1152
WIRE 1824 -1136 1824 -1248
WIRE 1952 -1136 1952 -1216
WIRE 1952 -1136 1824 -1136
WIRE 2048 -1136 1952 -1136
WIRE 3008 -1136 3008 -1232
WIRE 2048 -1120 2048 -1136
WIRE 2544 -1104 2464 -1104
WIRE 2688 -1104 2624 -1104
WIRE 3664 -1040 3664 -1072
WIRE 1952 -1024 1952 -1136
WIRE 1824 -992 1824 -1136
WIRE 1280 -976 1280 -1072
WIRE 1280 -976 1264 -976
WIRE 1168 -960 784 -960
WIRE 1280 -944 1264 -944
WIRE 2304 -928 2304 -976
WIRE 1952 -912 1952 -960
WIRE 3664 -912 3664 -960
WIRE 3664 -912 3584 -912
WIRE 3664 -896 3664 -912
WIRE 784 -880 784 -960
WIRE 3408 -864 3408 -1152
WIRE 3456 -864 3408 -864
WIRE 3584 -864 3584 -912
WIRE 3584 -864 3536 -864
WIRE 1280 -800 1280 -944
WIRE 1360 -800 1280 -800
WIRE 1520 -800 1360 -800
WIRE 1824 -800 1824 -928
WIRE 1824 -800 1616 -800
WIRE 1952 -800 1952 -832
WIRE 1952 -800 1824 -800
WIRE 2128 -800 1952 -800
WIRE 2304 -800 2304 -848
WIRE 2304 -800 2192 -800
WIRE 2464 -800 2464 -1104
WIRE 2464 -800 2304 -800
WIRE 2688 -800 2688 -1104
WIRE 2752 -800 2688 -800
WIRE 3008 -800 3008 -1056
WIRE 3008 -800 2752 -800
WIRE 3232 -800 3232 -1152
WIRE 3232 -800 3008 -800
WIRE 3664 -800 3664 -816
WIRE 784 -768 784 -800
WIRE 1280 -768 1280 -800
WIRE 1280 -768 784 -768
WIRE 1280 -688 1280 -768
WIRE 1280 -688 1264 -688
WIRE 1168 -672 784 -672
WIRE 784 -656 784 -672
WIRE 1280 -656 1264 -656
WIRE 1280 -560 1280 -656
WIRE 784 -544 784 -576
FLAG 576 -1456 0
FLAG 576 -1632 Vcc
FLAG 2736 -1440 sin
FLAG 2048 -1120 0
FLAG 2752 -800 sin2
FLAG 1280 -1712 Vcc
FLAG 784 -1184 0
FLAG 1280 -1200 0
FLAG 1280 -1072 Vcc
FLAG 784 -544 0
FLAG 1280 -560 0
FLAG 2304 -1264 0
FLAG 2304 -976 0
FLAG 3680 -1168 out
FLAG 3664 -800 0
FLAG 3664 -1072 Vcc
FLAG 3456 -1136 0
FLAG 3456 -1200 Vcc
FLAG 1360 -1440 PWM_high
FLAG 1360 -800 PWM_low
FLAG 960 -1600 MATLAB_PWM
FLAG 944 -1312 MATLAB_PWM|
SYMBOL voltage 576 -1584 R0
WINDOW 123 0 0 Left 2
WINDOW 39 0 0 Left 2
SYMATTR InstName V1
SYMATTR Value 8
SYMBOL res 2992 -1328 R0
SYMATTR InstName Rload1
SYMATTR Value 36.38
SYMBOL res 1936 -1424 R0
SYMATTR InstName R1
SYMATTR Value 10
SYMATTR SpiceLine tol=1 pwr=0.125
SYMBOL ind 2992 -1152 R0
SYMATTR InstName L1
SYMATTR Value 27.8m
SYMBOL cap 1936 -960 M180
WINDOW 0 24 56 Left 2
WINDOW 3 24 8 Left 2
SYMATTR InstName C2
SYMATTR Value 0.22µ
SYMATTR SpiceLine V=16 Irms=2.52 Rser=0.0526265 Lser=0 mfg="KEMET" pn="C0805C224K4RAC" type="X7R"
SYMBOL res 1936 -816 M180
WINDOW 0 36 76 Left 2
WINDOW 3 36 40 Left 2
SYMATTR InstName R2
SYMATTR Value 10
SYMATTR SpiceLine tol=1 pwr=0.125
SYMBOL cap 1808 -1248 M180
WINDOW 0 24 56 Left 2
WINDOW 3 24 8 Left 2
SYMATTR InstName C4
SYMATTR Value 1µ
SYMATTR SpiceLine V=16 Irms=8.02 Rser=0.00562267 Lser=0 mfg="KEMET" pn="C0805C335K4PAC" type="X5R"
SYMBOL voltage 784 -1536 R0
WINDOW 123 0 0 Left 2
WINDOW 39 0 0 Left 2
SYMATTR InstName V6
SYMATTR Value PWL file=PhaseA-H.txt
SYMBOL voltage 784 -1312 R0
WINDOW 123 0 0 Left 2
WINDOW 39 0 0 Left 2
SYMATTR InstName V7
SYMATTR Value PWL file=PhaseA-L.txt
SYMBOL voltage 784 -896 R0
WINDOW 123 0 0 Left 2
WINDOW 39 0 0 Left 2
SYMATTR InstName V2
SYMATTR Value PWL file=PhaseB-H.txt
SYMBOL voltage 784 -672 R0
WINDOW 123 0 0 Left 2
WINDOW 39 0 0 Left 2
SYMATTR InstName V3
SYMATTR Value PWL file=PhaseB-L.txt
SYMBOL cap 1808 -928 M180
WINDOW 0 24 56 Left 2
WINDOW 3 24 8 Left 2
SYMATTR InstName C1
SYMATTR Value 1µ
SYMATTR SpiceLine V=16 Irms=8.02 Rser=0.00562267 Lser=0 mfg="KEMET" pn="C0805C335K4PAC" type="X5R"
SYMBOL cap 1936 -1216 M180
WINDOW 0 24 56 Left 2
WINDOW 3 24 8 Left 2
SYMATTR InstName C5
SYMATTR Value 0.22µ
SYMATTR SpiceLine V=16 Irms=2.52 Rser=0.0526265 Lser=0 mfg="KEMET" pn="C0805C224K4RAC" type="X7R"
SYMBOL ind2 2640 -1264 R90
WINDOW 0 4 56 VBottom 2
WINDOW 3 32 56 VTop 2
SYMATTR InstName L4
SYMATTR Value 2.2m
SYMBOL ind2 2640 -1088 M270
WINDOW 0 32 56 VTop 2
WINDOW 3 4 56 VBottom 2
SYMATTR InstName L5
SYMATTR Value 2.2m
SYMBOL cap 2208 -1456 R90
WINDOW 0 0 32 VBottom 2
WINDOW 3 32 32 VTop 2
SYMATTR InstName C3
SYMATTR Value 1.5µ
SYMATTR SpiceLine V=16 Irms=12.5 Rser=0.00978387 Lser=0 mfg="KEMET" pn="C0805C155K4RAC" type="X7R"
SYMBOL res 2288 -1408 R0
SYMATTR InstName R4
SYMATTR Value 3.3K
SYMATTR SpiceLine tol=1 pwr=0.5
SYMBOL res 2288 -944 R0
SYMATTR InstName R5
SYMATTR Value 3.3K
SYMATTR SpiceLine tol=1 pwr=0.5
SYMBOL cap 2192 -816 R90
WINDOW 0 0 32 VBottom 2
WINDOW 3 32 32 VTop 2
SYMATTR InstName C6
SYMATTR Value 1.5µ
SYMATTR SpiceLine V=16 Irms=12.5 Rser=0.00978387 Lser=0 mfg="KEMET" pn="C0805C155K4RAC" type="X7R"
SYMBOL AutoGenerated\\SLF7045T_101MR50_PF_s 1568 -1440 R0
SYMATTR InstName U7
SYMBOL AutoGenerated\\SLF7045T_101MR50_PF_s 1568 -800 R0
SYMATTR InstName U8
SYMBOL res 3248 -1360 R0
SYMATTR InstName R6
SYMATTR Value 250k
SYMBOL res 3552 -880 R90
WINDOW 0 0 56 VBottom 2
WINDOW 3 32 56 VTop 2
SYMATTR InstName R7
SYMATTR Value 10k
SYMBOL res 3360 -1168 R90
WINDOW 0 0 56 VBottom 2
WINDOW 3 32 56 VTop 2
SYMATTR InstName R8
SYMATTR Value 250k
SYMBOL res 3408 -1216 R180
WINDOW 0 36 76 Left 2
WINDOW 3 36 40 Left 2
SYMATTR InstName R9
SYMATTR Value 20k
SYMBOL res 3648 -1056 R0
SYMATTR InstName R10
SYMATTR Value 43k
SYMBOL res 3648 -912 R0
SYMATTR InstName R11
SYMATTR Value 10k
SYMBOL AutoGenerated\\DMN3028LQ 1216 -960 R0
SYMATTR InstName U3
SYMBOL AutoGenerated\\DMN3028LQ 1216 -672 R0
SYMATTR InstName U4
SYMBOL AutoGenerated\\DMN3028LQ 1216 -1312 R0
SYMATTR InstName U1
SYMBOL AutoGenerated\\DMN3028LQ 1216 -1600 R0
SYMATTR InstName U2
SYMBOL Opamps\\ua741 3456 -1232 R0
SYMATTR InstName U5
TEXT 552 -1848 Left 2 !;ac dec 1000 0.1 1meg
TEXT 552 -1896 Left 2 !.four 1k 20 -1 V(sin) V(sin2)
TEXT 560 -1944 Left 2 !K L4 L5 1
TEXT 2968 -1552 Left 5 ;Load
TEXT 2616 -1560 Left 5 ;Choke
TEXT 2192 -1568 Left 5 ;HPF
TEXT 1664 -1680 Left 5 ;LPF
TEXT 1104 -1848 Left 5 ;Half-Bridge
TEXT 856 -1680 Left 5 ;PWM
TEXT 2176 -1904 Left 7 ;diminuer freq à 120Mhz -> THD correct!
TEXT 4136 -1584 Left 2 !.MODEL PMOS PMOS(VTO=-0.5 KP=9.661E-4)
TEXT 544 -504 Left 2 !.tran 1m
TEXT 3976 -1472 Left 2 !.inc ua741.lib
RECTANGLE Normal 3152 -752 2912 -1504 2
RECTANGLE Normal 2432 -752 2896 -1504 2
RECTANGLE Normal 2064 -752 2416 -1504 2
RECTANGLE Normal 1376 -864 2032 -1632 2
RECTANGLE Normal 1088 -528 1376 -1792 2
RECTANGLE Normal 736 -512 1072 -1632 2
CIRCLE Normal 2608 -1152 2560 -1200
