Version 4
SHEET 1 5692 1588
WIRE 1280 -1616 1280 -1712
WIRE 1280 -1616 1264 -1616
WIRE 1168 -1600 976 -1600
WIRE 1280 -1584 1264 -1584
WIRE 640 -1568 640 -1632
WIRE 976 -1520 976 -1600
WIRE 640 -1456 640 -1488
WIRE 1280 -1440 1280 -1584
WIRE 1536 -1440 1280 -1440
WIRE 1760 -1440 1616 -1440
WIRE 1888 -1440 1760 -1440
WIRE 2176 -1440 1888 -1440
WIRE 2336 -1440 2240 -1440
WIRE 2448 -1440 2336 -1440
WIRE 2496 -1440 2448 -1440
WIRE 976 -1408 976 -1440
WIRE 1280 -1408 1280 -1440
WIRE 1280 -1408 976 -1408
WIRE 1888 -1408 1888 -1440
WIRE 2336 -1392 2336 -1440
WIRE 1280 -1328 1280 -1408
WIRE 1280 -1328 1264 -1328
WIRE 1168 -1312 976 -1312
WIRE 1760 -1312 1760 -1440
WIRE 2496 -1312 2496 -1440
WIRE 976 -1296 976 -1312
WIRE 1280 -1296 1264 -1296
WIRE 1888 -1280 1888 -1328
WIRE 2336 -1264 2336 -1312
WIRE 1280 -1200 1280 -1296
WIRE 976 -1184 976 -1216
WIRE 1760 -1136 1760 -1248
WIRE 1888 -1136 1888 -1216
WIRE 1888 -1136 1760 -1136
WIRE 1984 -1136 1888 -1136
WIRE 2496 -1136 2496 -1232
WIRE 1984 -1120 1984 -1136
WIRE 1888 -1024 1888 -1136
WIRE 1760 -992 1760 -1136
WIRE 1280 -976 1280 -1072
WIRE 1280 -976 1264 -976
WIRE 1168 -960 976 -960
WIRE 1280 -944 1264 -944
WIRE 2336 -928 2336 -976
WIRE 1888 -912 1888 -960
WIRE 976 -880 976 -960
WIRE 1280 -800 1280 -944
WIRE 1536 -800 1280 -800
WIRE 1760 -800 1760 -928
WIRE 1760 -800 1616 -800
WIRE 1888 -800 1888 -832
WIRE 1888 -800 1760 -800
WIRE 2160 -800 1888 -800
WIRE 2336 -800 2336 -848
WIRE 2336 -800 2224 -800
WIRE 2464 -800 2336 -800
WIRE 2496 -800 2496 -1056
WIRE 2496 -800 2464 -800
WIRE 976 -768 976 -800
WIRE 1280 -768 1280 -800
WIRE 1280 -768 976 -768
WIRE 1280 -688 1280 -768
WIRE 1280 -688 1264 -688
WIRE 1168 -672 976 -672
WIRE 976 -656 976 -672
WIRE 1280 -656 1264 -656
WIRE 1280 -560 1280 -656
WIRE 976 -544 976 -576
FLAG 640 -1456 0
FLAG 640 -1632 Vcc
FLAG 2448 -1440 sin
FLAG 1984 -1120 0
FLAG 2336 -1264 0
FLAG 2336 -976 0
FLAG 2464 -800 sin2
FLAG 1280 -1712 Vcc
FLAG 976 -1184 0
FLAG 1280 -1200 0
FLAG 1280 -1072 Vcc
FLAG 976 -544 0
FLAG 1280 -560 0
SYMBOL voltage 640 -1584 R0
WINDOW 123 0 0 Left 2
WINDOW 39 0 0 Left 2
SYMATTR InstName V1
SYMATTR Value 10
SYMBOL res 2480 -1328 R0
SYMATTR InstName Rload
SYMATTR Value 145.54
SYMBOL res 1872 -1424 R0
SYMATTR InstName R1
SYMATTR Value 10
SYMATTR SpiceLine tol=1 pwr=0.125
SYMBOL ind 2480 -1152 R0
SYMATTR InstName Lload
SYMATTR Value 109m
SYMBOL ind 1520 -816 M90
WINDOW 0 5 56 VBottom 2
WINDOW 3 32 56 VTop 2
SYMATTR InstName L2
SYMATTR Value 100µ
SYMATTR SpiceLine Ipk=0.27 Rser=1.4 Rpar=60474.7 Cpar=0
SYMBOL cap 1872 -960 M180
WINDOW 0 24 56 Left 2
WINDOW 3 24 8 Left 2
SYMATTR InstName C2
SYMATTR Value 0.22µ
SYMATTR SpiceLine V=16 Irms=2.52 Rser=0.0526265 Lser=0 mfg="KEMET" pn="C0805C224K4RAC" type="X7R"
SYMBOL res 1872 -816 M180
WINDOW 0 36 76 Left 2
WINDOW 3 36 40 Left 2
SYMATTR InstName R2
SYMATTR Value 10
SYMATTR SpiceLine tol=1 pwr=0.125
SYMBOL cap 2240 -1456 R90
WINDOW 0 0 32 VBottom 2
WINDOW 3 32 32 VTop 2
SYMATTR InstName C3
SYMATTR Value 1.5µ
SYMATTR SpiceLine V=16 Irms=12.5 Rser=0.00978387 Lser=0 mfg="KEMET" pn="C0805C155K4RAC" type="X7R"
SYMBOL res 2320 -1408 R0
SYMATTR InstName R3
SYMATTR Value 3.3K
SYMATTR SpiceLine tol=1 pwr=0.5
SYMBOL res 2320 -944 R0
SYMATTR InstName R4
SYMATTR Value 3.3K
SYMATTR SpiceLine tol=1 pwr=0.5
SYMBOL ind 1632 -1424 M270
WINDOW 0 32 56 VTop 2
WINDOW 3 5 56 VBottom 2
SYMATTR InstName L3
SYMATTR Value 100µ
SYMATTR SpiceLine Ipk=0.27 Rser=1.4 Rpar=60474.7 Cpar=0
SYMBOL cap 1744 -1248 M180
WINDOW 0 24 56 Left 2
WINDOW 3 24 8 Left 2
SYMATTR InstName C4
SYMATTR Value 3.3µ
SYMATTR SpiceLine V=16 Irms=8.02 Rser=0.00562267 Lser=0 mfg="KEMET" pn="C0805C335K4PAC" type="X5R"
SYMBOL voltage 976 -1536 R0
WINDOW 123 0 0 Left 2
WINDOW 39 0 0 Left 2
SYMATTR InstName V6
SYMATTR Value PWL file=PhaseA-H.txt
SYMBOL voltage 976 -1312 R0
WINDOW 123 0 0 Left 2
WINDOW 39 0 0 Left 2
SYMATTR InstName V7
SYMATTR Value PWL file=PhaseA-L.txt
SYMBOL voltage 976 -896 R0
WINDOW 123 0 0 Left 2
WINDOW 39 0 0 Left 2
SYMATTR InstName V2
SYMATTR Value PWL file=PhaseB-H.txt
SYMBOL voltage 976 -672 R0
WINDOW 123 0 0 Left 2
WINDOW 39 0 0 Left 2
SYMATTR InstName V3
SYMATTR Value PWL file=PhaseB-L.txt
SYMBOL AutoGenerated\\DMN3032LFDBWQ 1216 -1600 R0
SYMATTR InstName U1
SYMBOL AutoGenerated\\DMN3032LFDBWQ 1216 -1312 R0
SYMATTR InstName U2
SYMBOL AutoGenerated\\DMN3032LFDBWQ 1216 -960 R0
SYMATTR InstName U3
SYMBOL AutoGenerated\\DMN3032LFDBWQ 1216 -672 R0
SYMATTR InstName U4
SYMBOL cap 1744 -928 M180
WINDOW 0 24 56 Left 2
WINDOW 3 24 8 Left 2
SYMATTR InstName C1
SYMATTR Value 3.3µ
SYMATTR SpiceLine V=16 Irms=8.02 Rser=0.00562267 Lser=0 mfg="KEMET" pn="C0805C335K4PAC" type="X5R"
SYMBOL cap 1872 -1216 M180
WINDOW 0 24 56 Left 2
WINDOW 3 24 8 Left 2
SYMATTR InstName C5
SYMATTR Value 0.22µ
SYMATTR SpiceLine V=16 Irms=2.52 Rser=0.0526265 Lser=0 mfg="KEMET" pn="C0805C224K4RAC" type="X7R"
SYMBOL cap 2224 -816 R90
WINDOW 0 0 32 VBottom 2
WINDOW 3 32 32 VTop 2
SYMATTR InstName C6
SYMATTR Value 1.5µ
SYMATTR SpiceLine V=16 Irms=12.5 Rser=0.00978387 Lser=0 mfg="KEMET" pn="C0805C155K4RAC" type="X7R"
TEXT 544 -1816 Left 2 !;ac dec 1000 0.1 1meg
TEXT 552 -1896 Left 2 !.four 1k 20 -1 V(sin) V(sin2)
TEXT 560 -1952 Left 2 !.tran 40m
TEXT 1680 -1600 Left 6 ;LPF
TEXT 2200 -1592 Left 6 ;HPF
TEXT 896 -1712 Left 6 ;PWM
RECTANGLE Normal 2416 -736 2128 -1536 2
RECTANGLE Normal 2032 -720 1488 -1552 2
RECTANGLE Normal 1104 -464 896 -1664 2
